9-bus-system/Result.txt
---------------牛顿－拉夫逊法潮流计算结果----------

 节点计算结果：
节点     节点电压      节点相角（角度）      节点注入功率
 1     1.040000      0.000000      0.716812 + j 0.371948
 2     1.025000      9.296442      1.630000 + j 0.089569
 3     1.025000      4.675390      0.850000 + j -0.071966
 4     1.020470      -2.194743      0.000000 + j 0.000000
 5     0.991429      -3.992295      -1.250000 + j -0.500000
 6     1.003839      -3.651917      -0.900000 + j -0.300000
 7     1.024372      3.728526      0.000000 + j 0.000000
 8     1.014141      0.729596      -1.000000 + j -0.350000
 9     1.030250      1.976461      0.000000 + j 0.000000

线路计算结果：
节点I    节点J          线路功率S(I,J)               线路功率S(J,I)               线路损耗dS(I,J)
 4       5         0.402390 + j 0.214983       -0.418908 + j -0.370671       -0.016518 + j -0.155688
 4       6         0.306779 + j 0.123070       -0.306596 + j -0.129297       0.000182 + j -0.006228
 5       7         -0.863997 + j -0.127032       0.887100 + j -0.064580       0.023104 + j -0.191612
 6       9         -0.617347 + j -0.169174       0.621192 + j -0.139657       0.003844 + j -0.308831
 7       8         0.773882 + j -0.002365       -0.757014 + j -0.111337       0.016868 + j -0.113702
 8       9         -0.238298 + j -0.238604       0.249552 + j 0.027888       0.011254 + j -0.210715
 1       4         0.716812 + j 0.371948       -0.716812 + j -0.337760       -0.000000 + j 0.034188
 2       7         1.630000 + j 0.089569       -1.630000 + j 0.068963       0.000000 + j 0.158532
 3       9         0.850000 + j -0.071966       -0.850000 + j 0.112484       0.000000 + j 0.040518

线路电流的计算结果：
节点I    节点J          元件I侧的电流             元件J侧的电流
 4       5      0.385961 + j -0.225617     -0.395475 + j 0.402386
 4       6      0.295786 + j -0.132025     -0.296599 + j 0.147995
 5       7      -0.860431 + j 0.188493     0.860062 + j 0.119225
 6       9      -0.603003 + j 0.207357     0.597918 + j 0.156271
 7       8      0.753721 + j 0.051431     -0.747796 + j 0.100270
 8       9      -0.237952 + j 0.232265     0.243014 + j -0.018699
 1       4      0.689243 + j -0.357642     -0.689243 + j 0.357642
 2       7      1.583473 + j 0.170656     -1.583473 + j -0.170656
 3       9      0.820786 + j 0.137572     -0.820786 + j -0.137572
